FoamFile
{
    version     2.0;
    format      ascii;
    class       volVectorField;
    object      U;
}
// * * * * * * * * * * * * * * * * * * * * * * * * * * * * * * * * * * * * * //

dimensions      [0 1 -1 0 0 0 0];

internalField   uniform (INSERT_VEL_HERE 0 0);

boundaryField
{


    inlet
    {
        type            fixedValue;
        value           uniform (INSERT_VEL_HERE 0 0);
    }

    outlet
    {
        type            zeroGradient;
    }
    
    walls
    {
        type            slip;
    }

    zFaces
    {
        type            empty;
    }
}
